data/case11kundur.m
function mpc = case11kundur
%CASE11KUNDUR  Power flow data for Kundur's test system
%   Please see CASEFORMAT for details on the case file format.
%
%   Data from ...
%       Prabha Kundur, Power System Stability and Control, McGraw-Hill, 1994.
%       Example 12.6, pp. 813-814.

%% MATPOWER Case Format : Version 2
mpc.version = '2';

%%-----  Power Flow Data  -----%%
%% system MVA base
mpc.baseMVA = 100;

%% bus data
%	bus_i	type	Pd	Qd	Gs	Bs	area	Vm	Va	baseKV	zone	Vmax	Vmin
mpc.bus = [
	1	2	0	0	0	0	1	1.03	27.0701596	20	1	1.1	0.9;
	2	2	0	0	0	0	1	1.01	17.3058622	20	1	1.1	0.9;
	3	3	0	0	0	0	1	1.03	0	20	1	1.1	0.9;
	4	2	0	0	0	0	1	1.01	-10.1919339	20	1	1.1	0.9;
	5	1	0	0	0	0	1	1.00645802	20.6082989	230	1	1.1	0.9;
	6	1	0	0	0	0	1	0.978134037	10.52376	230	1	1.1	0.9;
	7	1	967	100	0	200	1	0.961020876	2.11466714	230	1	1.1	0.9;
	8	1	0	0	0	0	1	0.948617571	-11.7551312	230	1	1.1	0.9;
	9	1	1767	100	0	350	1	0.971372762	-25.3522822	230	1	1.1	0.9;
	10	1	0	0	0	0	1	0.983465015	-16.9371018	230	1	1.1	0.9;
	11	1	0	0	0	0	1	1.00825761	-6.62698655	230	1	1.1	0.9;
];

%% generator data
%	bus	Pg	Qg	Qmax	Qmin	Vg	mBase	status	Pmax	Pmin	Pc1	Pc2	Qc1min	Qc1max	Qc2min	Qc2max	ramp_agc	ramp_10	ramp_30	ramp_q	apf
mpc.gen = [
	1	700	185.004618	999	-999	1.03	900	1	999	0	0	0	0	0	0	0	0	0	0	0	0;
	2	700	234.58568	999	-999	1.01	900	1	999	0	0	0	0	0	0	0	0	0	0	0	0;
	3	719.092381	176.000469	999	-999	1.03	900	1	999	0	0	0	0	0	0	0	0	0	0	0	0;
	4	700	202.053548	999	-999	1.01	900	1	999	0	0	0	0	0	0	0	0	0	0	0	0;
];

%% branch data
%	fbus	tbus	r	x	b	rateA	rateB	rateC	ratio	angle	status	angmin	angmax	Pf	Qf	Pt	Qt
mpc.branch = [
	1	5	0	0.0166666667	0	900	900	900	1	0	1	-360	360	700.0000	185.0046	-700.0000	-102.6490;
	2	6	0	0.0166666667	0	900	900	900	1	0	1	-360	360	700.0000	234.5857	-700.0000	-145.5371;
	3	11	0	0.0166666667	0	900	900	900	1	0	1	-360	360	719.0924	176.0005	-719.0924	-89.8990;
	4	10	0	0.0166666667	0	900	900	900	1	0	1	-360	360	700.0000	202.0535	-700.0000	-115.3258;
	5	6	0.0025	0.025	0.04375	900	900	900	0	0	1	-360	360	700.0000	102.6490	-687.6353	16.6893;
	6	7	0.001	0.01	0.0175	900	900	900	0	0	1	-360	360	1387.6353	128.8479	-1367.3337	72.5231;
	7	8	0.011	0.11	0.1925	900	900	900	0	0	1	-360	360	200.1668	6.0946	-195.3680	24.3435;
	7	8	0.011	0.11	0.1925	900	900	900	0	0	1	-360	360	200.1668	6.0946	-195.3680	24.3435;
	8	9	0.011	0.11	0.1925	900	900	900	0	0	1	-360	360	195.3680	-24.3435	-190.6722	53.5580;
	8	9	0.011	0.11	0.1925	900	900	900	0	0	1	-360	360	195.3680	-24.3435	-190.6722	53.5580;
	9	10	0.001	0.01	0.0175	900	900	900	0	0	1	-360	360	-1385.6556	123.1318	1406.1672	80.3127;
	10	11	0.0025	0.025	0.04375	900	900	900	0	0	1	-360	360	-706.1672	35.0131	719.0924	89.8990;
];